Info: SIMULATION PARAMETERS:
Info: TIMESTEP               2
Info: NUMBER OF STEPS        0
Info: STEPS PER CYCLE        10
Info: PERIODIC CELL BASIS 1  40 0 0
Info: PERIODIC CELL BASIS 2  0 40 0
Info: PERIODIC CELL BASIS 3  0 0 60
Info: PERIODIC CELL CENTER   0 0 0
Info: WRAPPING WATERS AROUND PERIODIC BOUNDARIES ON OUTPUT.
Info: WRAPPING ALL CLUSTERS AROUND PERIODIC BOUNDARIES ON OUTPUT.
Info: FIRST LDB TIMESTEP     50
Info: LAST LDB TIMESTEP     -1
Info: HOM BACKGROUND SCALING 1
Info: PME BACKGROUND SCALING 1
Info: MIN ATOMS PER PATCH    40
Info: EMPTY PATCH LOAD       40 ATOMS
Info: VELOCITY FILE          ../minimization/minimized.restart.vel
Info: CENTER OF MASS MOVING INITIALLY? NO
Info: REMOVING CENTER OF MASS DRIFT DURING SIMULATION
Info: DIELECTRIC             1
Info: EXCLUDE                SCALED ONE-FOUR
Info: 1-4 ELECTROSTATICS SCALED BY 1
Info: MODIFIED 1-4 VDW PARAMETERS WILL BE USED
Info: DCD FILENAME           MDequil.dcd
Info: DCD FREQUENCY          5000
Info: DCD FIRST STEP         5000
Info: DCD FILE WILL CONTAIN UNIT CELL DATA
Info: XST FILENAME           MDequil.xst
Info: XST FREQUENCY          5000
Info: NO VELOCITY DCD OUTPUT
Info: NO FORCE DCD OUTPUT
Info: OUTPUT FILENAME        MDequil
Info: BINARY OUTPUT FILES WILL BE USED
Info: RESTART FILENAME       MDequil.restart
Info: RESTART FREQUENCY      50000
Info: BINARY RESTART FILES WILL BE USED
Info: SWITCHING ACTIVE
Info: SWITCHING ON           10
Info: SWITCHING OFF          12
Info: PAIRLIST DISTANCE      14
Info: PAIRLIST SHRINK RATE   0.01
Info: PAIRLIST GROW RATE     0.01
Info: PAIRLIST TRIGGER       0.3
Info: PAIRLISTS PER CYCLE    2
Info: PAIRLISTS ENABLED
Info: MARGIN                 0
Info: HYDROGEN GROUP CUTOFF  2.5
Info: PATCH DIMENSION        16.5
Info: ENERGY OUTPUT STEPS    5000
Info: ENERGY EVALUATION STEPS    5000
Info: OUTPUT ENERGY PRECISION 4
Info: CROSSTERM ENERGY INCLUDED IN DIHEDRAL
Info: TIMING OUTPUT STEPS    50000
Info: PRESSURE OUTPUT STEPS  5000
Info: LANGEVIN DYNAMICS ACTIVE
Info: LANGEVIN TEMPERATURE   265
Info: LANGEVIN USING BBK INTEGRATOR
Info: LANGEVIN DAMPING COEFFICIENT IS 1 INVERSE PS
Info: LANGEVIN DYNAMICS NOT APPLIED TO HYDROGENS
Info: PARTICLE MESH EWALD (PME) ACTIVE
Info: PME TOLERANCE               1e-06
Info: PME EWALD COEFFICIENT       0.257952
Info: PME INTERPOLATION ORDER     4
Info: PME GRID DIMENSIONS         40 40 60
Info: PME MAXIMUM GRID SPACING    1
Info: FULL ELECTROSTATIC EVALUATION FREQUENCY      2
Info: USING VERLET I (r-RESPA) MTS SCHEME.
Info: C1 SPLITTING OF LONG RANGE ELECTROSTATICS
Info: PLACING ATOMS IN PATCHES BY HYDROGEN GROUPS
Info: RIGID BONDS TO HYDROGEN : ALL
Info:         ERROR TOLERANCE : 1e-08
Info:          MAX ITERATIONS : 100
Info: RIGID WATER USING SETTLE ALGORITHM
Info: RANDOM NUMBER SEED     1751375807
Info: USE HYDROGEN BONDS?    NO
Info: COORDINATE PDB         ../estructura/system.pdb
Info: STRUCTURE FILE         ../estructura/system.psf
Info: PARAMETER file: CHARMM format!
Info: PARAMETERS             ../estructura/par_all36m_prot.inp
Info: PARAMETERS             ../estructura/par_water_ions.inp
Info: USING ARITHMETIC MEAN TO COMBINE L-J SIGMA PARAMETERS
Info: BINARY COORDINATES     ../minimization/minimized.restart.coor
Info: SUMMARY OF PARAMETERS:
Info: 135 BONDS
Info: 365 ANGLES
Info: 706 DIHEDRAL
Info: 35 IMPROPER
Info: 6 CROSSTERM
Info: 68 VDW
Info: 3 VDW_PAIRS
Info: 0 NBTHOLE_PAIRS
Info: STRUCTURE SUMMARY:
Info: 1266 ATOMS
Info: 1042 BONDS
Info: 1292 ANGLES
Info: 1560 DIHEDRALS
Info: 96 IMPROPERS
Info: 42 CROSSTERMS
Info: 0 EXCLUSIONS
Info: 978 RIGID BONDS
Info: 2820 DEGREES OF FREEDOM
Info: 524 HYDROGEN GROUPS
Info: 4 ATOMS IN LARGEST HYDROGEN GROUP
Info: 524 MIGRATION GROUPS
Info: 4 ATOMS IN LARGEST MIGRATION GROUP
Info: TOTAL MASS = 8306.07 amu
Info: TOTAL CHARGE = 6.70552e-07 e
Info: MASS DENSITY = 0.143676 g/cm^3
Info: ATOM DENSITY = 0.0131875 atoms/A^3
Info: ADDED 3804 IMPLICIT EXCLUSIONS
Info: NONBONDED TABLE R-SQUARED SPACING: 0.0625
Info: NONBONDED TABLE SIZE: 769 POINTS
Info: REMOVING COM VELOCITY 0 0 0
TCL: Running for 500000 steps
ETITLE: TS BOND ANGLE DIHED IMPRP ELECT VDW BOUNDARY MISC KINETIC TOTAL TEMP POTENTIAL TOTAL3 TEMPAVG PRESSURE GPRESSURE VOLUME PRESSAVG GPRESSAVG
ENERGY: 0 24.1322 168.8525 387.3850 3.0574 -2411.4013 271.3070 0.0000 0.0000 0.0000 -1556.6672 0.0000 -1556.6672 -1556.6590 0.0000 221.7583 222.4339 96000.0000 221.7583 222.4339
ENERGY: 100000 111.4370 368.0168 380.8566 17.6756 -1876.4992 98.0668 0.0000 0.0000 703.5485 -196.8978 251.0934 -900.4463 -192.1309 262.1627 77.7039 79.8084 96000.0000 1.7539 1.7616
ENERGY: 200000 119.1018 375.1074 359.6884 14.4875 -1825.1288 81.0987 0.0000 0.0000 716.0516 -159.5933 255.5557 -875.6450 -155.2592 262.0486 -17.5106 -14.1628 96000.0000 -7.9914 -7.9905
ENERGY: 300000 120.4010 376.6924 340.1747 13.2106 -1808.0396 85.1213 0.0000 0.0000 751.3795 -121.0601 268.1641 -872.4396 -115.5412 263.6919 -122.5410 -126.0283 96000.0000 -0.8232 -0.8012
ENERGY: 400000 112.4590 388.7123 339.2072 13.3161 -1814.0204 47.1631 0.0000 0.0000 703.3419 -209.8208 251.0197 -913.1627 -205.4444 265.6924 -41.8591 -34.5763 96000.0000 -4.6653 -4.6376
ENERGY: 500000 109.6756 385.0948 344.5298 18.1342 -1869.1152 71.5634 0.0000 0.0000 706.0070 -234.1103 251.9708 -940.1173 -228.6493 262.8829 -82.2841 -81.6192 96000.0000 -0.4933 -0.4897
