Info: SIMULATION PARAMETERS:
Info: TIMESTEP               2
Info: NUMBER OF STEPS        0
Info: STEPS PER CYCLE        10
Info: PERIODIC CELL BASIS 1  40 0 0
Info: PERIODIC CELL BASIS 2  0 40 0
Info: PERIODIC CELL BASIS 3  0 0 60
Info: PERIODIC CELL CENTER   0 0 0
Info: WRAPPING WATERS AROUND PERIODIC BOUNDARIES ON OUTPUT.
Info: WRAPPING ALL CLUSTERS AROUND PERIODIC BOUNDARIES ON OUTPUT.
Info: FIRST LDB TIMESTEP     50
Info: LAST LDB TIMESTEP     -1
Info: HOM BACKGROUND SCALING 1
Info: PME BACKGROUND SCALING 1
Info: MIN ATOMS PER PATCH    40
Info: EMPTY PATCH LOAD       40 ATOMS
Info: VELOCITY FILE          ../minimization/minimized.restart.vel
Info: CENTER OF MASS MOVING INITIALLY? NO
Info: REMOVING CENTER OF MASS DRIFT DURING SIMULATION
Info: DIELECTRIC             1
Info: EXCLUDE                SCALED ONE-FOUR
Info: 1-4 ELECTROSTATICS SCALED BY 1
Info: MODIFIED 1-4 VDW PARAMETERS WILL BE USED
Info: DCD FILENAME           MDequil.dcd
Info: DCD FREQUENCY          5000
Info: DCD FIRST STEP         5000
Info: DCD FILE WILL CONTAIN UNIT CELL DATA
Info: XST FILENAME           MDequil.xst
Info: XST FREQUENCY          5000
Info: NO VELOCITY DCD OUTPUT
Info: NO FORCE DCD OUTPUT
Info: OUTPUT FILENAME        MDequil
Info: BINARY OUTPUT FILES WILL BE USED
Info: RESTART FILENAME       MDequil.restart
Info: RESTART FREQUENCY      50000
Info: BINARY RESTART FILES WILL BE USED
Info: SWITCHING ACTIVE
Info: SWITCHING ON           10
Info: SWITCHING OFF          12
Info: PAIRLIST DISTANCE      14
Info: PAIRLIST SHRINK RATE   0.01
Info: PAIRLIST GROW RATE     0.01
Info: PAIRLIST TRIGGER       0.3
Info: PAIRLISTS PER CYCLE    2
Info: PAIRLISTS ENABLED
Info: MARGIN                 0
Info: HYDROGEN GROUP CUTOFF  2.5
Info: PATCH DIMENSION        16.5
Info: ENERGY OUTPUT STEPS    5000
Info: ENERGY EVALUATION STEPS    5000
Info: OUTPUT ENERGY PRECISION 4
Info: CROSSTERM ENERGY INCLUDED IN DIHEDRAL
Info: TIMING OUTPUT STEPS    50000
Info: PRESSURE OUTPUT STEPS  5000
Info: LANGEVIN DYNAMICS ACTIVE
Info: LANGEVIN TEMPERATURE   350
Info: LANGEVIN USING BBK INTEGRATOR
Info: LANGEVIN DAMPING COEFFICIENT IS 1 INVERSE PS
Info: LANGEVIN DYNAMICS NOT APPLIED TO HYDROGENS
Info: PARTICLE MESH EWALD (PME) ACTIVE
Info: PME TOLERANCE               1e-06
Info: PME EWALD COEFFICIENT       0.257952
Info: PME INTERPOLATION ORDER     4
Info: PME GRID DIMENSIONS         40 40 60
Info: PME MAXIMUM GRID SPACING    1
Info: FULL ELECTROSTATIC EVALUATION FREQUENCY      2
Info: USING VERLET I (r-RESPA) MTS SCHEME.
Info: C1 SPLITTING OF LONG RANGE ELECTROSTATICS
Info: PLACING ATOMS IN PATCHES BY HYDROGEN GROUPS
Info: RIGID BONDS TO HYDROGEN : ALL
Info:         ERROR TOLERANCE : 1e-08
Info:          MAX ITERATIONS : 100
Info: RIGID WATER USING SETTLE ALGORITHM
Info: RANDOM NUMBER SEED     1751380148
Info: USE HYDROGEN BONDS?    NO
Info: COORDINATE PDB         ../estructura/system.pdb
Info: STRUCTURE FILE         ../estructura/system.psf
Info: PARAMETER file: CHARMM format!
Info: PARAMETERS             ../estructura/par_all36m_prot.inp
Info: PARAMETERS             ../estructura/par_water_ions.inp
Info: USING ARITHMETIC MEAN TO COMBINE L-J SIGMA PARAMETERS
Info: BINARY COORDINATES     ../minimization/minimized.restart.coor
Info: SUMMARY OF PARAMETERS:
Info: 135 BONDS
Info: 365 ANGLES
Info: 706 DIHEDRAL
Info: 35 IMPROPER
Info: 6 CROSSTERM
Info: 68 VDW
Info: 3 VDW_PAIRS
Info: 0 NBTHOLE_PAIRS
Info: STRUCTURE SUMMARY:
Info: 1266 ATOMS
Info: 1042 BONDS
Info: 1292 ANGLES
Info: 1560 DIHEDRALS
Info: 96 IMPROPERS
Info: 42 CROSSTERMS
Info: 0 EXCLUSIONS
Info: 978 RIGID BONDS
Info: 2820 DEGREES OF FREEDOM
Info: 524 HYDROGEN GROUPS
Info: 4 ATOMS IN LARGEST HYDROGEN GROUP
Info: 524 MIGRATION GROUPS
Info: 4 ATOMS IN LARGEST MIGRATION GROUP
Info: TOTAL MASS = 8306.07 amu
Info: TOTAL CHARGE = 6.70552e-07 e
Info: MASS DENSITY = 0.143676 g/cm^3
Info: ATOM DENSITY = 0.0131875 atoms/A^3
Info: ADDED 3804 IMPLICIT EXCLUSIONS
Info: NONBONDED TABLE R-SQUARED SPACING: 0.0625
Info: NONBONDED TABLE SIZE: 769 POINTS
Info: REMOVING COM VELOCITY 0 0 0
TCL: Running for 500000 steps
ETITLE: TS BOND ANGLE DIHED IMPRP ELECT VDW BOUNDARY MISC KINETIC TOTAL TEMP POTENTIAL TOTAL3 TEMPAVG PRESSURE GPRESSURE VOLUME PRESSAVG GPRESSAVG
ENERGY: 0 24.1322 168.8525 387.3850 3.0574 -2411.4013 271.3070 0.0000 0.0000 0.0000 -1556.6672 0.0000 -1556.6672 -1556.6590 0.0000 221.7583 222.4339 96000.0000 221.7583 222.4339
ENERGY: 100000 127.0827 441.4497 361.9376 22.0999 -1499.8215 80.2779 0.0000 0.0000 991.3025 524.3289 353.7916 -466.9736 533.2832 352.6613 173.1530 178.6200 96000.0000 -20.1792 -20.1889
ENERGY: 200000 120.4405 486.9090 346.3333 21.4830 -1526.2849 58.2895 0.0000 0.0000 971.5514 478.7218 346.7425 -492.8296 486.3193 345.6799 60.5497 61.3502 96000.0000 -20.3374 -20.3003
ENERGY: 300000 148.9080 457.0861 344.6740 17.5307 -1428.8456 33.4909 0.0000 0.0000 953.2218 526.0658 340.2007 -427.1560 531.6531 348.4407 -230.9566 -228.3429 96000.0000 -18.3209 -18.3330
ENERGY: 400000 123.7516 437.1496 354.3742 22.9815 -1516.6786 66.8215 0.0000 0.0000 1012.6235 501.0233 361.4009 -511.6002 507.8618 347.9161 148.5000 153.4325 96000.0000 -14.1448 -14.1613
ENERGY: 500000 128.9316 426.2188 357.7420 20.5635 -1413.5101 25.7550 0.0000 0.0000 948.7804 494.4813 338.6156 -454.2991 500.7574 348.7677 -158.0320 -160.5169 96000.0000 -22.4442 -22.4243
