Info: SIMULATION PARAMETERS:
Info: TIMESTEP               2
Info: NUMBER OF STEPS        0
Info: STEPS PER CYCLE        10
Info: PERIODIC CELL BASIS 1  40 0 0
Info: PERIODIC CELL BASIS 2  0 40 0
Info: PERIODIC CELL BASIS 3  0 0 60
Info: PERIODIC CELL CENTER   0 0 0
Info: WRAPPING WATERS AROUND PERIODIC BOUNDARIES ON OUTPUT.
Info: WRAPPING ALL CLUSTERS AROUND PERIODIC BOUNDARIES ON OUTPUT.
Info: FIRST LDB TIMESTEP     50
Info: LAST LDB TIMESTEP     -1
Info: HOM BACKGROUND SCALING 1
Info: PME BACKGROUND SCALING 1
Info: MIN ATOMS PER PATCH    40
Info: EMPTY PATCH LOAD       40 ATOMS
Info: VELOCITY FILE          ../minimization/minimized.restart.vel
Info: CENTER OF MASS MOVING INITIALLY? NO
Info: REMOVING CENTER OF MASS DRIFT DURING SIMULATION
Info: DIELECTRIC             1
Info: EXCLUDE                SCALED ONE-FOUR
Info: 1-4 ELECTROSTATICS SCALED BY 1
Info: MODIFIED 1-4 VDW PARAMETERS WILL BE USED
Info: DCD FILENAME           MDequil.dcd
Info: DCD FREQUENCY          5000
Info: DCD FIRST STEP         5000
Info: DCD FILE WILL CONTAIN UNIT CELL DATA
Info: XST FILENAME           MDequil.xst
Info: XST FREQUENCY          5000
Info: NO VELOCITY DCD OUTPUT
Info: NO FORCE DCD OUTPUT
Info: OUTPUT FILENAME        MDequil
Info: BINARY OUTPUT FILES WILL BE USED
Info: RESTART FILENAME       MDequil.restart
Info: RESTART FREQUENCY      50000
Info: BINARY RESTART FILES WILL BE USED
Info: SWITCHING ACTIVE
Info: SWITCHING ON           10
Info: SWITCHING OFF          12
Info: PAIRLIST DISTANCE      14
Info: PAIRLIST SHRINK RATE   0.01
Info: PAIRLIST GROW RATE     0.01
Info: PAIRLIST TRIGGER       0.3
Info: PAIRLISTS PER CYCLE    2
Info: PAIRLISTS ENABLED
Info: MARGIN                 0
Info: HYDROGEN GROUP CUTOFF  2.5
Info: PATCH DIMENSION        16.5
Info: ENERGY OUTPUT STEPS    5000
Info: ENERGY EVALUATION STEPS    5000
Info: OUTPUT ENERGY PRECISION 4
Info: CROSSTERM ENERGY INCLUDED IN DIHEDRAL
Info: TIMING OUTPUT STEPS    50000
Info: PRESSURE OUTPUT STEPS  5000
Info: LANGEVIN DYNAMICS ACTIVE
Info: LANGEVIN TEMPERATURE   200
Info: LANGEVIN USING BBK INTEGRATOR
Info: LANGEVIN DAMPING COEFFICIENT IS 1 INVERSE PS
Info: LANGEVIN DYNAMICS NOT APPLIED TO HYDROGENS
Info: PARTICLE MESH EWALD (PME) ACTIVE
Info: PME TOLERANCE               1e-06
Info: PME EWALD COEFFICIENT       0.257952
Info: PME INTERPOLATION ORDER     4
Info: PME GRID DIMENSIONS         40 40 60
Info: PME MAXIMUM GRID SPACING    1
Info: FULL ELECTROSTATIC EVALUATION FREQUENCY      2
Info: USING VERLET I (r-RESPA) MTS SCHEME.
Info: C1 SPLITTING OF LONG RANGE ELECTROSTATICS
Info: PLACING ATOMS IN PATCHES BY HYDROGEN GROUPS
Info: RIGID BONDS TO HYDROGEN : ALL
Info:         ERROR TOLERANCE : 1e-08
Info:          MAX ITERATIONS : 100
Info: RIGID WATER USING SETTLE ALGORITHM
Info: RANDOM NUMBER SEED     1751378153
Info: USE HYDROGEN BONDS?    NO
Info: COORDINATE PDB         ../estructura/system.pdb
Info: STRUCTURE FILE         ../estructura/system.psf
Info: PARAMETER file: CHARMM format!
Info: PARAMETERS             ../estructura/par_all36m_prot.inp
Info: PARAMETERS             ../estructura/par_water_ions.inp
Info: USING ARITHMETIC MEAN TO COMBINE L-J SIGMA PARAMETERS
Info: BINARY COORDINATES     ../minimization/minimized.restart.coor
Info: SUMMARY OF PARAMETERS:
Info: 135 BONDS
Info: 365 ANGLES
Info: 706 DIHEDRAL
Info: 35 IMPROPER
Info: 6 CROSSTERM
Info: 68 VDW
Info: 3 VDW_PAIRS
Info: 0 NBTHOLE_PAIRS
Info: STRUCTURE SUMMARY:
Info: 1266 ATOMS
Info: 1042 BONDS
Info: 1292 ANGLES
Info: 1560 DIHEDRALS
Info: 96 IMPROPERS
Info: 42 CROSSTERMS
Info: 0 EXCLUSIONS
Info: 978 RIGID BONDS
Info: 2820 DEGREES OF FREEDOM
Info: 524 HYDROGEN GROUPS
Info: 4 ATOMS IN LARGEST HYDROGEN GROUP
Info: 524 MIGRATION GROUPS
Info: 4 ATOMS IN LARGEST MIGRATION GROUP
Info: TOTAL MASS = 8306.07 amu
Info: TOTAL CHARGE = 6.70552e-07 e
Info: MASS DENSITY = 0.143676 g/cm^3
Info: ATOM DENSITY = 0.0131875 atoms/A^3
Info: ADDED 3804 IMPLICIT EXCLUSIONS
Info: NONBONDED TABLE R-SQUARED SPACING: 0.0625
Info: NONBONDED TABLE SIZE: 769 POINTS
Info: REMOVING COM VELOCITY 0 0 0
TCL: Running for 500000 steps
ETITLE: TS BOND ANGLE DIHED IMPRP ELECT VDW BOUNDARY MISC KINETIC TOTAL TEMP POTENTIAL TOTAL3 TEMPAVG PRESSURE GPRESSURE VOLUME PRESSAVG GPRESSAVG
ENERGY: 0 24.1322 168.8525 387.3850 3.0574 -2411.4013 271.3070 0.0000 0.0000 0.0000 -1556.6672 0.0000 -1556.6672 -1556.6590 0.0000 221.7583 222.4339 96000.0000 221.7583 222.4339
ENERGY: 100000 87.4552 306.5937 395.5197 11.5623 -2129.1677 117.2645 0.0000 0.0000 564.7579 -646.0146 201.5597 -1210.7725 -641.0272 198.5309 -60.0528 -54.4851 96000.0000 1.4952 1.5038
ENERGY: 200000 91.7746 311.1438 381.9632 12.7017 -2143.7921 143.0928 0.0000 0.0000 554.5095 -648.6066 197.9020 -1203.1160 -645.1116 199.5921 14.2577 16.9790 96000.0000 3.9316 3.9356
ENERGY: 300000 94.2947 349.9338 359.3003 16.4259 -2156.7890 113.3097 0.0000 0.0000 533.7257 -689.7989 190.4844 -1223.5246 -687.1032 195.8680 -23.7074 -19.6332 96000.0000 1.1205 1.1169
ENERGY: 400000 79.9559 295.8883 358.2475 11.3905 -2027.3180 50.1568 0.0000 0.0000 553.9641 -677.7149 197.7074 -1231.6791 -673.0776 203.4840 -21.5896 -23.5645 96000.0000 0.6357 0.6696
ENERGY: 500000 86.6992 337.4965 365.6593 12.7484 -2142.1064 125.6750 0.0000 0.0000 530.6678 -683.1602 189.3930 -1213.8280 -678.8962 198.6239 30.7061 27.5183 96000.0000 -0.2050 -0.2122
