Info: SIMULATION PARAMETERS:
Info: TIMESTEP               2
Info: NUMBER OF STEPS        0
Info: STEPS PER CYCLE        10
Info: PERIODIC CELL BASIS 1  40 0 0
Info: PERIODIC CELL BASIS 2  0 40 0
Info: PERIODIC CELL BASIS 3  0 0 60
Info: PERIODIC CELL CENTER   0 0 0
Info: WRAPPING WATERS AROUND PERIODIC BOUNDARIES ON OUTPUT.
Info: WRAPPING ALL CLUSTERS AROUND PERIODIC BOUNDARIES ON OUTPUT.
Info: FIRST LDB TIMESTEP     50
Info: LAST LDB TIMESTEP     -1
Info: HOM BACKGROUND SCALING 1
Info: PME BACKGROUND SCALING 1
Info: MIN ATOMS PER PATCH    40
Info: EMPTY PATCH LOAD       40 ATOMS
Info: VELOCITY FILE          ../minimization/minimized.restart.vel
Info: CENTER OF MASS MOVING INITIALLY? NO
Info: REMOVING CENTER OF MASS DRIFT DURING SIMULATION
Info: DIELECTRIC             1
Info: EXCLUDE                SCALED ONE-FOUR
Info: 1-4 ELECTROSTATICS SCALED BY 1
Info: MODIFIED 1-4 VDW PARAMETERS WILL BE USED
Info: DCD FILENAME           MDequil.dcd
Info: DCD FREQUENCY          5000
Info: DCD FIRST STEP         5000
Info: DCD FILE WILL CONTAIN UNIT CELL DATA
Info: XST FILENAME           MDequil.xst
Info: XST FREQUENCY          5000
Info: NO VELOCITY DCD OUTPUT
Info: NO FORCE DCD OUTPUT
Info: OUTPUT FILENAME        MDequil
Info: BINARY OUTPUT FILES WILL BE USED
Info: RESTART FILENAME       MDequil.restart
Info: RESTART FREQUENCY      50000
Info: BINARY RESTART FILES WILL BE USED
Info: SWITCHING ACTIVE
Info: SWITCHING ON           10
Info: SWITCHING OFF          12
Info: PAIRLIST DISTANCE      14
Info: PAIRLIST SHRINK RATE   0.01
Info: PAIRLIST GROW RATE     0.01
Info: PAIRLIST TRIGGER       0.3
Info: PAIRLISTS PER CYCLE    2
Info: PAIRLISTS ENABLED
Info: MARGIN                 0
Info: HYDROGEN GROUP CUTOFF  2.5
Info: PATCH DIMENSION        16.5
Info: ENERGY OUTPUT STEPS    5000
Info: ENERGY EVALUATION STEPS    5000
Info: OUTPUT ENERGY PRECISION 4
Info: CROSSTERM ENERGY INCLUDED IN DIHEDRAL
Info: TIMING OUTPUT STEPS    50000
Info: PRESSURE OUTPUT STEPS  5000
Info: LANGEVIN DYNAMICS ACTIVE
Info: LANGEVIN TEMPERATURE   300
Info: LANGEVIN USING BBK INTEGRATOR
Info: LANGEVIN DAMPING COEFFICIENT IS 1 INVERSE PS
Info: LANGEVIN DYNAMICS NOT APPLIED TO HYDROGENS
Info: PARTICLE MESH EWALD (PME) ACTIVE
Info: PME TOLERANCE               1e-06
Info: PME EWALD COEFFICIENT       0.257952
Info: PME INTERPOLATION ORDER     4
Info: PME GRID DIMENSIONS         40 40 60
Info: PME MAXIMUM GRID SPACING    1
Info: FULL ELECTROSTATIC EVALUATION FREQUENCY      2
Info: USING VERLET I (r-RESPA) MTS SCHEME.
Info: C1 SPLITTING OF LONG RANGE ELECTROSTATICS
Info: PLACING ATOMS IN PATCHES BY HYDROGEN GROUPS
Info: RIGID BONDS TO HYDROGEN : ALL
Info:         ERROR TOLERANCE : 1e-08
Info:          MAX ITERATIONS : 100
Info: RIGID WATER USING SETTLE ALGORITHM
Info: RANDOM NUMBER SEED     1751368964
Info: USE HYDROGEN BONDS?    NO
Info: COORDINATE PDB         ../estructura/system.pdb
Info: STRUCTURE FILE         ../estructura/system.psf
Info: PARAMETER file: CHARMM format!
Info: PARAMETERS             ../estructura/par_all36m_prot.inp
Info: PARAMETERS             ../estructura/par_water_ions.inp
Info: USING ARITHMETIC MEAN TO COMBINE L-J SIGMA PARAMETERS
Info: BINARY COORDINATES     ../minimization/minimized.restart.coor
Info: SUMMARY OF PARAMETERS:
Info: 135 BONDS
Info: 365 ANGLES
Info: 706 DIHEDRAL
Info: 35 IMPROPER
Info: 6 CROSSTERM
Info: 68 VDW
Info: 3 VDW_PAIRS
Info: 0 NBTHOLE_PAIRS
Info: STRUCTURE SUMMARY:
Info: 1266 ATOMS
Info: 1042 BONDS
Info: 1292 ANGLES
Info: 1560 DIHEDRALS
Info: 96 IMPROPERS
Info: 42 CROSSTERMS
Info: 0 EXCLUSIONS
Info: 978 RIGID BONDS
Info: 2820 DEGREES OF FREEDOM
Info: 524 HYDROGEN GROUPS
Info: 4 ATOMS IN LARGEST HYDROGEN GROUP
Info: 524 MIGRATION GROUPS
Info: 4 ATOMS IN LARGEST MIGRATION GROUP
Info: TOTAL MASS = 8306.07 amu
Info: TOTAL CHARGE = 6.70552e-07 e
Info: MASS DENSITY = 0.143676 g/cm^3
Info: ATOM DENSITY = 0.0131875 atoms/A^3
Info: ADDED 3804 IMPLICIT EXCLUSIONS
Info: NONBONDED TABLE R-SQUARED SPACING: 0.0625
Info: NONBONDED TABLE SIZE: 769 POINTS
Info: REMOVING COM VELOCITY 0 0 0
TCL: Running for 500000 steps
ETITLE: TS BOND ANGLE DIHED IMPRP ELECT VDW BOUNDARY MISC KINETIC TOTAL TEMP POTENTIAL TOTAL3 TEMPAVG PRESSURE GPRESSURE VOLUME PRESSAVG GPRESSAVG
ENERGY: 0 24.1322 168.8525 387.3850 3.0574 -2411.4013 271.3070 0.0000 0.0000 0.0000 -1556.6672 0.0000 -1556.6672 -1556.6590 0.0000 221.7583 222.4339 96000.0000 221.7583 222.4339
ENERGY: 100000 113.9510 462.4445 353.3891 17.3175 -1673.0376 46.3908 0.0000 0.0000 813.6366 134.0919 290.3834 -679.5447 140.3320 303.8329 92.4259 88.4027 96000.0000 1.2618 1.2340
ENERGY: 200000 121.0211 416.6601 336.6187 14.7364 -1645.4932 52.1561 0.0000 0.0000 851.3637 147.0630 303.8480 -704.3007 152.4127 299.9039 116.6374 119.0763 96000.0000 4.1816 4.2235
ENERGY: 300000 120.7967 454.6311 323.9685 22.0864 -1660.7465 28.7235 0.0000 0.0000 854.2372 143.6968 304.8736 -710.5404 148.3205 298.8046 -110.1280 -111.2420 96000.0000 -1.0048 -1.0299
ENERGY: 400000 113.2465 408.3410 331.9619 16.1207 -1676.1206 65.5240 0.0000 0.0000 848.3420 107.4154 302.7696 -740.9266 114.0248 296.2651 -145.3274 -145.4097 96000.0000 -2.0618 -2.0558
ENERGY: 500000 130.7389 437.4305 328.1507 19.4883 -1737.2144 111.6167 0.0000 0.0000 810.8093 101.0201 289.3743 -709.7892 105.7305 297.8551 -0.6381 7.5918 96000.0000 -4.0587 -4.0697
