Info: SIMULATION PARAMETERS:
Info: TIMESTEP               2
Info: NUMBER OF STEPS        0
Info: STEPS PER CYCLE        10
Info: PERIODIC CELL BASIS 1  60 0 0
Info: PERIODIC CELL BASIS 2  0 60 0
Info: PERIODIC CELL BASIS 3  0 0 60
Info: PERIODIC CELL CENTER   0 0 0
Info: WRAPPING WATERS AROUND PERIODIC BOUNDARIES ON OUTPUT.
Info: WRAPPING ALL CLUSTERS AROUND PERIODIC BOUNDARIES ON OUTPUT.
Info: FIRST LDB TIMESTEP     50
Info: LAST LDB TIMESTEP     -1
Info: HOM BACKGROUND SCALING 1
Info: PME BACKGROUND SCALING 1
Info: MIN ATOMS PER PATCH    40
Info: EMPTY PATCH LOAD       40 ATOMS
Info: VELOCITY FILE          ../minimization2/minimized.restart.vel
Info: CENTER OF MASS MOVING INITIALLY? NO
Info: REMOVING CENTER OF MASS DRIFT DURING SIMULATION
Info: DIELECTRIC             1
Info: EXCLUDE                SCALED ONE-FOUR
Info: 1-4 ELECTROSTATICS SCALED BY 1
Info: MODIFIED 1-4 VDW PARAMETERS WILL BE USED
Info: DCD FILENAME           MDequil.dcd
Info: DCD FREQUENCY          5000
Info: DCD FIRST STEP         5000
Info: DCD FILE WILL CONTAIN UNIT CELL DATA
Info: XST FILENAME           MDequil.xst
Info: XST FREQUENCY          5000
Info: NO VELOCITY DCD OUTPUT
Info: NO FORCE DCD OUTPUT
Info: OUTPUT FILENAME        MDequil
Info: BINARY OUTPUT FILES WILL BE USED
Info: RESTART FILENAME       MDequil.restart
Info: RESTART FREQUENCY      50000
Info: BINARY RESTART FILES WILL BE USED
Info: SWITCHING ACTIVE
Info: SWITCHING ON           10
Info: SWITCHING OFF          12
Info: PAIRLIST DISTANCE      14
Info: PAIRLIST SHRINK RATE   0.01
Info: PAIRLIST GROW RATE     0.01
Info: PAIRLIST TRIGGER       0.3
Info: PAIRLISTS PER CYCLE    2
Info: PAIRLISTS ENABLED
Info: MARGIN                 0
Info: HYDROGEN GROUP CUTOFF  2.5
Info: PATCH DIMENSION        16.5
Info: ENERGY OUTPUT STEPS    5000
Info: ENERGY EVALUATION STEPS    5000
Info: OUTPUT ENERGY PRECISION 4
Info: CROSSTERM ENERGY INCLUDED IN DIHEDRAL
Info: TIMING OUTPUT STEPS    50000
Info: PRESSURE OUTPUT STEPS  5000
Info: LANGEVIN DYNAMICS ACTIVE
Info: LANGEVIN TEMPERATURE   300
Info: LANGEVIN USING BBK INTEGRATOR
Info: LANGEVIN DAMPING COEFFICIENT IS 1 INVERSE PS
Info: LANGEVIN DYNAMICS NOT APPLIED TO HYDROGENS
Info: PARTICLE MESH EWALD (PME) ACTIVE
Info: PME TOLERANCE               1e-06
Info: PME EWALD COEFFICIENT       0.257952
Info: PME INTERPOLATION ORDER     4
Info: PME GRID DIMENSIONS         60 60 60
Info: PME MAXIMUM GRID SPACING    1
Info: FULL ELECTROSTATIC EVALUATION FREQUENCY      2
Info: USING VERLET I (r-RESPA) MTS SCHEME.
Info: C1 SPLITTING OF LONG RANGE ELECTROSTATICS
Info: PLACING ATOMS IN PATCHES BY HYDROGEN GROUPS
Info: RIGID BONDS TO HYDROGEN : ALL
Info:         ERROR TOLERANCE : 1e-08
Info:          MAX ITERATIONS : 100
Info: RIGID WATER USING SETTLE ALGORITHM
Info: RANDOM NUMBER SEED     1751373543
Info: USE HYDROGEN BONDS?    NO
Info: COORDINATE PDB         ../estructura/system.pdb
Info: STRUCTURE FILE         ../estructura/system.psf
Info: PARAMETER file: CHARMM format!
Info: PARAMETERS             ../estructura/par_all36m_prot.inp
Info: PARAMETERS             ../estructura/par_water_ions.inp
Info: USING ARITHMETIC MEAN TO COMBINE L-J SIGMA PARAMETERS
Info: BINARY COORDINATES     ../minimization2/minimized.restart.coor
Info: SUMMARY OF PARAMETERS:
Info: 135 BONDS
Info: 365 ANGLES
Info: 706 DIHEDRAL
Info: 35 IMPROPER
Info: 6 CROSSTERM
Info: 68 VDW
Info: 3 VDW_PAIRS
Info: 0 NBTHOLE_PAIRS
Info: STRUCTURE SUMMARY:
Info: 1266 ATOMS
Info: 1042 BONDS
Info: 1292 ANGLES
Info: 1560 DIHEDRALS
Info: 96 IMPROPERS
Info: 42 CROSSTERMS
Info: 0 EXCLUSIONS
Info: 978 RIGID BONDS
Info: 2820 DEGREES OF FREEDOM
Info: 524 HYDROGEN GROUPS
Info: 4 ATOMS IN LARGEST HYDROGEN GROUP
Info: 524 MIGRATION GROUPS
Info: 4 ATOMS IN LARGEST MIGRATION GROUP
Info: TOTAL MASS = 8306.07 amu
Info: TOTAL CHARGE = 6.70552e-07 e
Info: MASS DENSITY = 0.0638559 g/cm^3
Info: ATOM DENSITY = 0.00586111 atoms/A^3
Info: ADDED 3804 IMPLICIT EXCLUSIONS
Info: NONBONDED TABLE R-SQUARED SPACING: 0.0625
Info: NONBONDED TABLE SIZE: 769 POINTS
Info: REMOVING COM VELOCITY 0 0 0
TCL: Running for 500000 steps
ETITLE: TS BOND ANGLE DIHED IMPRP ELECT VDW BOUNDARY MISC KINETIC TOTAL TEMP POTENTIAL TOTAL3 TEMPAVG PRESSURE GPRESSURE VOLUME PRESSAVG GPRESSAVG
ENERGY: 0 24.5277 167.7403 384.5663 2.6423 -2394.9512 269.9927 0.0000 0.0000 0.0000 -1545.4819 0.0000 -1545.4819 -1545.4739 0.0000 90.5097 91.1337 216000.0000 90.5097 91.1337
ENERGY: 100000 128.5105 385.1827 380.8518 15.4341 -1654.9357 24.5844 0.0000 0.0000 844.0925 123.7203 301.2530 -720.3722 129.0984 304.6901 -84.3538 -82.3650 216000.0000 -2.9392 -2.9422
ENERGY: 200000 117.8487 393.8339 373.3561 20.2060 -1614.2192 16.1419 0.0000 0.0000 820.4749 127.6423 292.8239 -692.8326 132.3936 296.2431 -6.9146 -5.9001 216000.0000 1.1383 1.1301
ENERGY: 300000 123.3693 411.2378 355.1295 20.3292 -1637.8028 64.3819 0.0000 0.0000 886.2895 222.9343 316.3129 -663.3551 230.3336 302.1487 72.8536 73.2669 216000.0000 1.0377 1.0343
ENERGY: 400000 105.7657 404.7984 343.1058 15.8010 -1626.2356 34.3221 0.0000 0.0000 803.6309 81.1883 286.8124 -722.4426 86.8768 296.1762 26.5576 26.3312 216000.0000 0.3144 0.3100
ENERGY: 500000 115.8712 444.8492 319.4578 17.8920 -1691.0634 53.2631 0.0000 0.0000 845.0674 105.3373 301.6009 -739.7301 109.9568 302.1970 66.0151 67.0818 216000.0000 -0.9720 -0.9700
